OPT_V9/My_campus_w_initial_sub_3_active_25_03_11_44/powerflow_results_t19.txt
Pandapower Network Debug Info
==================================================

BUS:
       vm_pu  va_degree      p_mw    q_mvar
0   0.994776   0.116492  0.000409  0.000579
1   0.991192   0.176527  0.001110  0.001765
2   0.987982   0.221321  0.001770  0.002226
3   0.992036   0.205813  0.001413  0.003406
4   0.991381   0.253918  0.002003  0.004629
5   0.994076   0.094589  0.002972  0.004276
6   0.993180   0.101070  0.000573  0.000575
7   0.998064   0.021728  0.001336  0.001571
8   0.998276   0.037849  0.001656  0.001935
9   0.999894   0.000417  0.010921  0.008348
10  0.999882   0.000443  0.010042  0.007931
11  0.999872   0.000476  0.011909  0.010489
12  0.999793   0.001193  0.008730  0.005879
13  0.999774   0.001256  0.012231  0.011130
14  0.999763   0.001252  0.013472  0.010339
15  0.999936   0.000366  0.000000  0.000000
16  0.999936   0.000371  0.000000  0.000000
17  0.999797   0.001211  0.000000  0.000000
18  0.999797   0.001219  0.000000  0.000000
19  1.000000   0.000000 -0.037670 -0.039803
20  1.000000   0.000005  0.000000  0.000000
21  1.000000   0.000000 -0.043076 -0.045399
22  1.000000   0.000006  0.000000  0.000000
--------------------------------------------------

LINE:
    p_from_mw  q_from_mvar   p_to_mw  q_to_mvar         pl_mw       ql_mvar  i_from_ka   i_to_ka      i_ka  vm_from_pu  va_from_degree  vm_to_pu  va_to_degree  loading_percent
0    0.037660     0.035803 -0.037657  -0.035801  2.641120e-06  2.059325e-06   0.002000  0.002000  0.002000    1.000000        0.000005  0.999936      0.000366         0.869592
1    0.043066     0.041399 -0.043057  -0.041391  9.598950e-06  7.484459e-06   0.002299  0.002299  0.002299    1.000000        0.000006  0.999797      0.001211         0.999693
2    0.032874     0.026769 -0.032873  -0.026768  1.390002e-06  1.083808e-06   0.001632  0.001632  0.001632    0.999936        0.000366  0.999894      0.000417         0.709511
3    0.008730     0.005879 -0.008730  -0.005879  3.832211e-08  2.988038e-08   0.000405  0.000405  0.000405    0.999797        0.001211  0.999793      0.001193         0.176165
4    0.025703     0.021469 -0.025703  -0.021469  6.135296e-07  4.783792e-07   0.001289  0.001289  0.001289    0.999797        0.001211  0.999774      0.001256         0.560566
5    0.004773     0.008032 -0.004733  -0.008000  4.083711e-05  3.184137e-05   0.013487  0.013487  0.013487    0.999936        0.000371  0.994776      0.116492         5.863890
6    0.003574     0.004874 -0.003546  -0.004852  2.835493e-05  2.210880e-05   0.008726  0.008726  0.008726    0.999797        0.001219  0.994076      0.094589         3.793902
7    0.001339     0.001573 -0.001336  -0.001571  2.884225e-06  2.248878e-06   0.002982  0.002982  0.002982    0.999797        0.001219  0.998064      0.021728         1.296639
8    0.003700     0.006596 -0.003690  -0.006589  9.839421e-06  7.671958e-06   0.010919  0.010919  0.010919    0.999797        0.001219  0.998276      0.037849         4.747347
9   -0.021952    -0.018420  0.021952   0.018420  2.840456e-07  2.214751e-07   0.001103  0.001103  0.001103    0.999882        0.000443  0.999894      0.000417         0.479610
10  -0.011909    -0.010489  0.011910   0.010489  1.232006e-07  9.606153e-08   0.000611  0.000611  0.000611    0.999872        0.000476  0.999882      0.000443         0.265609
11  -0.013472    -0.010339  0.013472   0.010339  1.411062e-07  1.100228e-07   0.000654  0.000654  0.000654    0.999763        0.001252  0.999774      0.001256         0.284256
12  -0.002887    -0.003997  0.002902   0.004009  1.464039e-05  1.141535e-05   0.007180  0.007180  0.007180    0.991192        0.176527  0.994776      0.116492         3.121797
13  -0.001413    -0.003406  0.001422   0.003413  9.222934e-06  7.191273e-06   0.005364  0.005364  0.005364    0.992036        0.205813  0.994776      0.116492         2.332386
14  -0.001770    -0.002226  0.001777   0.002232  7.495725e-06  5.844540e-06   0.004155  0.004155  0.004155    0.987982        0.221321  0.991192      0.176527         1.806473
15   0.002035     0.004654 -0.002003  -0.004629  3.149801e-05  2.455952e-05   0.007344  0.007344  0.007344    0.998276        0.037849  0.991381      0.253918         3.192947
16  -0.000573    -0.000575  0.000574   0.000576  5.822976e-07  4.540271e-07   0.001180  0.001180  0.001180    0.993180        0.101070  0.994076      0.094589         0.513227
--------------------------------------------------

TRAFO:
    p_hv_mw  q_hv_mvar   p_lv_mw  q_lv_mvar    pl_mw  ql_mvar   i_hv_ka   i_lv_ka  vm_hv_pu  va_hv_degree  vm_lv_pu  va_lv_degree  loading_percent
0  0.004783   0.009032 -0.004773  -0.008032  0.00001    0.001  0.000393  0.013487  0.999936      0.000366  0.999936      0.000371         0.102210
1  0.008624   0.014043 -0.008614  -0.013044  0.00001    0.001  0.000634  0.022566  0.999797      0.001211  0.999797      0.001219         0.164829
2  0.037670   0.039803 -0.037660  -0.035803  0.00001    0.004  0.000452  0.002000  1.000000      0.000000  1.000000      0.000005         0.137007
3  0.043076   0.045399 -0.043066  -0.041399  0.00001    0.004  0.000516  0.002299  1.000000      0.000000  1.000000      0.000006         0.156457
--------------------------------------------------
